*LTspice
*
*LT1762
*150mA, low noise, LDO micropower regulator
*AE01005762
*
*netlist
.include LT1762.cir
*
*line regulation
*.param RADJU=422k
*.param RADJB=249k
*.param VSOURCE=20
*.param ILOAD=50m
*.dc V1 5 {VSOURCE} 1m
*
*load regulation
*.param RADJU=422k
*.param RADJB=249k
*.param VSOURCE=5
*.param ILOAD=120m
*.dc I1 10m {ILOAD} 100n
*
*out regulation
.step param RADJU list 0.1 56.2k 118k 261k 365k 422k 768k
.param RADJB=249k
.param VSOURCE=12
.param ILOAD=0.1
.dc V1 2 {VSOURCE} 1m
*
.option noopiter
.backanno
